/*--------------------------------*- C++ -*----------------------------------*\
| =========                 |                                                 |
| \\      /  F ield         | OpenFOAM: The Open Source CFD Toolbox           |
|  \\    /   O peration     | Version:  v2412                                 |
|   \\  /    A nd           | Website:  www.openfoam.com                      |
|    \\/     M anipulation  |                                                 |
\*---------------------------------------------------------------------------*/
FoamFile
{
    version     2.0;
    format      ascii;
    class       volVectorField;
    object      U;
}
// * * * * * * * * * * * * * * * * * * * * * * * * * * * * * * * * * * * * * //

//#include        "include/initialConditions"

dimensions      [0 1 -1 0 0 0 0];

internalField   uniform (0 0 0);

boundaryField
{
    #includeEtc "caseDicts/setConstraintTypes"

    inlet
    {
       type            fixedValue;
       value           uniform (30 0 0);
    }

    outlet
    {
        type            zeroGradient;
    }

    ground
    {
        type            noSlip;
    }

    estate_walls
    {
        type            noSlip;
    }
    walls
    {
        type            noSlip;
    }
    symmetry
    {
        type             symmetry;
    }

}


// ************************************************************************* //
